data_Layer\(4)
_audit_creation_date              2023-11-24
_audit_creation_method            'Materials Studio'
_symmetry_space_group_name_H-M    'P1'
_symmetry_Int_Tables_number       1
_symmetry_cell_setting            triclinic
loop_
_symmetry_equiv_pos_as_xyz
  x,y,z
_cell_length_a                    5.6958
_cell_length_b                    5.6958
_cell_length_c                    34.4192
_cell_angle_alpha                 90.0000
_cell_angle_beta                  90.0000
_cell_angle_gamma                 90.0000
loop_
_atom_site_label
_atom_site_type_symbol
_atom_site_fract_x
_atom_site_fract_y
_atom_site_fract_z
_atom_site_U_iso_or_equiv
_atom_site_adp_type
_atom_site_occupancy
Si1    Si    0.00000   0.50000   0.07199   0.00000  Uiso   1.00
Si2    Si    0.50000   0.50000   0.11247   0.00000  Uiso   1.00
Si3    Si    0.50000   0.00000   0.07199   0.00000  Uiso   1.00
Si4    Si    0.00000   0.00000   0.11247   0.00000  Uiso   1.00
O5     O     0.34379   0.15621   0.09982   0.00000  Uiso   1.00
O6     O     0.15621   0.84379   0.05935   0.00000  Uiso   1.00
O7     O     0.84379   0.34379   0.04416   0.00000  Uiso   1.00
O8     O     0.65621   0.65621   0.08464   0.00000  Uiso   1.00
O9     O     0.34379   0.34379   0.05935   0.00000  Uiso   1.00
O10    O     0.15621   0.65621   0.09982   0.00000  Uiso   1.00
O11    O     0.84379   0.15621   0.08464   0.00000  Uiso   1.00
O12    O     0.65621   0.84379   0.04416   0.00000  Uiso   1.00
W13    W     0.00000   0.00000   0.83574   0.00000  Uiso   1.00
W14    W     0.00000   0.50000   0.49499   0.00000  Uiso   1.00
W15    W     0.50000   0.00000   0.49499   0.00000  Uiso   1.00
W16    W     0.50000   0.50000   0.83574   0.00000  Uiso   1.00
W17    W     0.75000   0.25000   0.49499   0.00000  Uiso   1.00
W18    W     0.75000   0.75000   0.83574   0.00000  Uiso   1.00
W19    W     0.25000   0.50000   0.66536   0.00000  Uiso   1.00
W20    W     0.25000   0.00000   0.32462   0.00000  Uiso   1.00
W21    W     0.75000   0.00000   0.66536   0.00000  Uiso   1.00
W22    W     0.50000   0.75000   0.32462   0.00000  Uiso   1.00
W23    W     0.00000   0.75000   0.66536   0.00000  Uiso   1.00
W24    W     0.25000   0.75000   0.49499   0.00000  Uiso   1.00
W25    W     0.25000   0.25000   0.83574   0.00000  Uiso   1.00
W26    W     0.75000   0.50000   0.32462   0.00000  Uiso   1.00
W27    W     0.50000   0.25000   0.66536   0.00000  Uiso   1.00
W28    W     0.00000   0.25000   0.32462   0.00000  Uiso   1.00
W29    W     0.25000   0.25000   0.32462   0.00000  Uiso   1.00
O30    O     0.37350   0.37350   0.40878   0.00000  Uiso   1.00
W31    W     0.25000   0.75000   0.66536   0.00000  Uiso   1.00
O32    O     0.37350   0.87350   0.74953   0.00000  Uiso   1.00
W33    W     0.75000   0.25000   0.66536   0.00000  Uiso   1.00
O34    O     0.87350   0.37350   0.74953   0.00000  Uiso   1.00
W35    W     0.75000   0.75000   0.32462   0.00000  Uiso   1.00
O36    O     0.87350   0.87350   0.40878   0.00000  Uiso   1.00
W37    W     0.50000   0.00000   0.66536   0.00000  Uiso   1.00
O38    O     0.37650   0.87650   0.74953   0.00000  Uiso   1.00
W39    W     0.50000   0.50000   0.32462   0.00000  Uiso   1.00
O40    O     0.37650   0.37650   0.40878   0.00000  Uiso   1.00
W41    W     0.00000   0.75000   0.49499   0.00000  Uiso   1.00
O42    O     0.87650   0.87350   0.41083   0.00000  Uiso   1.00
W43    W     0.00000   0.25000   0.83574   0.00000  Uiso   1.00
O44    O     0.87650   0.37350   0.75157   0.00000  Uiso   1.00
W45    W     0.50000   0.25000   0.49499   0.00000  Uiso   1.00
O46    O     0.37650   0.37350   0.41083   0.00000  Uiso   1.00
W47    W     0.75000   0.50000   0.83574   0.00000  Uiso   1.00
O48    O     0.87350   0.37650   0.75157   0.00000  Uiso   1.00
W49    W     0.25000   0.50000   0.49499   0.00000  Uiso   1.00
O50    O     0.37350   0.37650   0.41083   0.00000  Uiso   1.00
W51    W    -0.00000   0.50000   0.32462   0.00000  Uiso   1.00
O52    O     0.12350   0.62350   0.24045   0.00000  Uiso   1.00
W53    W    -0.00000  -0.00000   0.66536   0.00000  Uiso   1.00
O54    O     0.12350   0.12350   0.58120   0.00000  Uiso   1.00
W55    W     0.75000   0.75000   0.66536   0.00000  Uiso   1.00
O56    O     0.62650   0.62650   0.58120   0.00000  Uiso   1.00
W57    W     0.75000   0.25000   0.32462   0.00000  Uiso   1.00
O58    O     0.62650   0.12650   0.24045   0.00000  Uiso   1.00
W59    W     0.25000   0.75000   0.32462   0.00000  Uiso   1.00
O60    O     0.12650   0.62650   0.24045   0.00000  Uiso   1.00
W61    W     0.25000   0.25000   0.66536   0.00000  Uiso   1.00
O62    O     0.12650   0.12650   0.58120   0.00000  Uiso   1.00
W63    W     0.50000   0.25000   0.83574   0.00000  Uiso   1.00
O64    O     0.62350   0.12650   0.23841   0.00000  Uiso   1.00
W65    W     0.50000   0.75000   0.49499   0.00000  Uiso   1.00
O66    O     0.62350   0.62650   0.57916   0.00000  Uiso   1.00
W67    W    -0.00000   0.75000   0.83574   0.00000  Uiso   1.00
O68    O     0.12350   0.62650   0.23841   0.00000  Uiso   1.00
W69    W     0.25000  -0.00000   0.49499   0.00000  Uiso   1.00
O70    O     0.12650   0.12350   0.57916   0.00000  Uiso   1.00
W71    W     0.75000  -0.00000   0.83574   0.00000  Uiso   1.00
O72    O     0.62650   0.12350   0.23841   0.00000  Uiso   1.00
W73    W     0.50000  -0.00000   0.32462   0.00000  Uiso   1.00
O74    O     0.62350   0.12350   0.24045   0.00000  Uiso   1.00
W75    W     0.50000   0.50000   0.66536   0.00000  Uiso   1.00
O76    O     0.62350   0.62350   0.58120   0.00000  Uiso   1.00
W77    W    -0.00000   0.25000   0.49499   0.00000  Uiso   1.00
O78    O     0.12350   0.12650   0.57916   0.00000  Uiso   1.00
W79    W     0.25000   0.50000   0.83574   0.00000  Uiso   1.00
O80    O     0.12650   0.62350   0.23841   0.00000  Uiso   1.00
W81    W     0.75000   0.50000   0.49499   0.00000  Uiso   1.00
O82    O     0.62650   0.62350   0.57916   0.00000  Uiso   1.00
W83    W     0.00000   0.50000   0.66536   0.00000  Uiso   1.00
O84    O     0.87650   0.37650   0.74953   0.00000  Uiso   1.00
W85    W     0.00000   0.00000   0.32462   0.00000  Uiso   1.00
O86    O     0.87650   0.87650   0.40878   0.00000  Uiso   1.00
W87    W     0.50000   0.75000   0.83574   0.00000  Uiso   1.00
O88    O     0.37650   0.87350   0.75157   0.00000  Uiso   1.00
W89    W     0.75000   0.00000   0.49499   0.00000  Uiso   1.00
O90    O     0.87350   0.87650   0.41083   0.00000  Uiso   1.00
W91    W     0.25000   0.00000   0.83574   0.00000  Uiso   1.00
O92    O     0.37350   0.87650   0.75157   0.00000  Uiso   1.00
Na93   Na    0.62500   0.62500   0.58018   0.00000  Uiso   1.00
Na94   Na    0.12500   0.62500   0.23943   0.00000  Uiso   1.00
Na95   Na    0.62500   0.12500   0.23943   0.00000  Uiso   1.00
Na96   Na    0.12500   0.12500   0.58018   0.00000  Uiso   1.00
Na97   Na    0.37500   0.87500   0.75055   0.00000  Uiso   1.00
Na98   Na    0.37500   0.37500   0.40980   0.00000  Uiso   1.00
Na99   Na    0.87500   0.87500   0.40980   0.00000  Uiso   1.00
Na100  Na    0.87500   0.37500   0.75055   0.00000  Uiso   1.00
Na101  Na    0.62500   0.87500   0.75055   0.00000  Uiso   1.00
Na102  Na    0.62500   0.37500   0.40980   0.00000  Uiso   1.00
Na103  Na    0.12500   0.37500   0.40980   0.00000  Uiso   1.00
Na104  Na    0.12500   0.87500   0.75055   0.00000  Uiso   1.00
Na105  Na    0.62500   0.37500   0.75055   0.00000  Uiso   1.00
Na106  Na    0.12500   0.87500   0.40980   0.00000  Uiso   1.00
Na107  Na    0.87500   0.62500   0.75055   0.00000  Uiso   1.00
Na108  Na    0.37500   0.12500   0.40980   0.00000  Uiso   1.00
Na109  Na    0.87500   0.62500   0.40980   0.00000  Uiso   1.00
Na110  Na    0.87500   0.12500   0.75055   0.00000  Uiso   1.00
Na111  Na    0.37500   0.12500   0.75055   0.00000  Uiso   1.00
Na112  Na    0.37500   0.62500   0.40980   0.00000  Uiso   1.00
Na113  Na    0.87500   0.87500   0.58018   0.00000  Uiso   1.00
Na114  Na    0.37500   0.37500   0.23943   0.00000  Uiso   1.00
Na115  Na    0.87500   0.87500   0.23943   0.00000  Uiso   1.00
Na116  Na    0.37500   0.87500   0.58018   0.00000  Uiso   1.00
Na117  Na    0.87500   0.37500   0.23943   0.00000  Uiso   1.00
Na118  Na    0.62500   0.87500   0.58018   0.00000  Uiso   1.00
Na119  Na    0.12500   0.37500   0.23943   0.00000  Uiso   1.00
Na120  Na    0.12500   0.87500   0.58018   0.00000  Uiso   1.00
Na121  Na    0.62500   0.37500   0.58018   0.00000  Uiso   1.00
Na122  Na    0.62500   0.37500   0.23943   0.00000  Uiso   1.00
Na123  Na    0.37500   0.12500   0.58018   0.00000  Uiso   1.00
Na124  Na    0.87500   0.62500   0.23943   0.00000  Uiso   1.00
Na125  Na    0.37500   0.12500   0.23943   0.00000  Uiso   1.00
Na126  Na    0.37500   0.62500   0.58018   0.00000  Uiso   1.00
Na127  Na    0.87500   0.62500   0.58018   0.00000  Uiso   1.00
Na128  Na    0.87500   0.12500   0.23943   0.00000  Uiso   1.00
Na129  Na    0.62500   0.12500   0.75055   0.00000  Uiso   1.00
Na130  Na    0.62500   0.62500   0.40980   0.00000  Uiso   1.00
Na131  Na    0.12500   0.62500   0.40980   0.00000  Uiso   1.00
Na132  Na    0.12500   0.12500   0.75055   0.00000  Uiso   1.00
Na133  Na    0.62500   0.62500   0.75055   0.00000  Uiso   1.00
Na134  Na    0.12500   0.12500   0.40980   0.00000  Uiso   1.00
Na135  Na    0.37500   0.62500   0.23943   0.00000  Uiso   1.00
Na136  Na    0.87500   0.12500   0.58018   0.00000  Uiso   1.00
Na137  Na    0.12500   0.37500   0.58018   0.00000  Uiso   1.00
Na138  Na    0.12500   0.87500   0.23943   0.00000  Uiso   1.00
Na139  Na    0.62500   0.87500   0.23943   0.00000  Uiso   1.00
Na140  Na    0.62500   0.12500   0.40980   0.00000  Uiso   1.00
Na141  Na    0.12500   0.62500   0.75055   0.00000  Uiso   1.00
Na142  Na    0.87500   0.12500   0.40980   0.00000  Uiso   1.00
Na143  Na    0.37500   0.62500   0.75055   0.00000  Uiso   1.00
Na144  Na    0.62500   0.87500   0.40980   0.00000  Uiso   1.00
Na145  Na    0.12500   0.37500   0.75055   0.00000  Uiso   1.00
Na146  Na    0.37500   0.87500   0.23943   0.00000  Uiso   1.00
Na147  Na    0.37500   0.37500   0.58018   0.00000  Uiso   1.00
Na148  Na    0.87500   0.37500   0.58018   0.00000  Uiso   1.00
Na149  Na    0.50000   0.00000   0.66536   0.00000  Uiso   1.00
Na150  Na    0.50000   0.50000   0.32462   0.00000  Uiso   1.00
Na151  Na    0.25000   0.25000   0.32462   0.00000  Uiso   1.00
Na152  Na    0.25000   0.75000   0.66536   0.00000  Uiso   1.00
Na153  Na    0.75000   0.25000   0.66536   0.00000  Uiso   1.00
Na154  Na    0.75000   0.75000   0.32462   0.00000  Uiso   1.00
Na155  Na    0.75000   0.50000   0.83574   0.00000  Uiso   1.00
Na156  Na    0.25000   0.50000   0.49499   0.00000  Uiso   1.00
Na157  Na    0.00000   0.75000   0.49499   0.00000  Uiso   1.00
Na158  Na    0.00000   0.25000   0.83574   0.00000  Uiso   1.00
Na159  Na    0.25000   0.00000   0.83574   0.00000  Uiso   1.00
Na160  Na    0.50000   0.25000   0.49499   0.00000  Uiso   1.00
Na161  Na    0.00000   0.00000   0.32462   0.00000  Uiso   1.00
Na162  Na    0.75000   0.75000   0.66536   0.00000  Uiso   1.00
Na163  Na    0.75000   0.25000   0.32462   0.00000  Uiso   1.00
Na164  Na    0.25000   0.75000   0.32462   0.00000  Uiso   1.00
Na165  Na    0.25000   0.25000   0.66536   0.00000  Uiso   1.00
Na166  Na   -0.00000   0.50000   0.32462   0.00000  Uiso   1.00
Na167  Na   -0.00000   0.00000   0.66536   0.00000  Uiso   1.00
Na168  Na    0.25000   0.00000   0.49499   0.00000  Uiso   1.00
Na169  Na    0.75000   0.00000   0.83574   0.00000  Uiso   1.00
Na170  Na    0.50000   0.25000   0.83574   0.00000  Uiso   1.00
Na171  Na    0.50000   0.75000   0.49499   0.00000  Uiso   1.00
Na172  Na    0.50000  -0.00000   0.32462   0.00000  Uiso   1.00
Na173  Na    0.50000   0.50000   0.66536   0.00000  Uiso   1.00
Na174  Na    0.25000   0.50000   0.83574   0.00000  Uiso   1.00
Na175  Na    0.75000   0.50000   0.49499   0.00000  Uiso   1.00
Na176  Na    0.00000   0.25000   0.49499   0.00000  Uiso   1.00
Na177  Na    0.00000   0.75000   0.83574   0.00000  Uiso   1.00
Na178  Na    0.00000   0.50000   0.66536   0.00000  Uiso   1.00
Na179  Na    0.75000   0.00000   0.49499   0.00000  Uiso   1.00
Na180  Na    0.50000   0.75000   0.83574   0.00000  Uiso   1.00
O181   O     0.38350   0.62500   0.58018   0.00000  Uiso   1.00
O182   O     0.38350   0.12500   0.23943   0.00000  Uiso   1.00
O183   O     0.36650   0.62500   0.23943   0.00000  Uiso   1.00
O184   O     0.86650   0.12500   0.23943   0.00000  Uiso   1.00
O185   O     0.86650   0.62500   0.58018   0.00000  Uiso   1.00
O186   O     0.88350   0.12500   0.58018   0.00000  Uiso   1.00
O187   O     0.62500   0.38350   0.58018   0.00000  Uiso   1.00
O188   O     0.12500   0.36650   0.58018   0.00000  Uiso   1.00
O189   O     0.62500   0.86650   0.58018   0.00000  Uiso   1.00
O190   O     0.12500   0.86650   0.23943   0.00000  Uiso   1.00
O191   O     0.62500   0.88350   0.23943   0.00000  Uiso   1.00
O192   O     0.12500   0.38350   0.23943   0.00000  Uiso   1.00
O193   O     0.62500   0.62500   0.41560   0.00000  Uiso   1.00
O194   O     0.62500   0.12500   0.40401   0.00000  Uiso   1.00
O195   O     0.62500   0.62500   0.74476   0.00000  Uiso   1.00
O196   O     0.12500   0.12500   0.74476   0.00000  Uiso   1.00
O197   O     0.12500   0.62500   0.75634   0.00000  Uiso   1.00
O198   O     0.12500   0.12500   0.41560   0.00000  Uiso   1.00
O199   O     0.37500   0.63350   0.75055   0.00000  Uiso   1.00
O200   O     0.37500   0.13350   0.40980   0.00000  Uiso   1.00
O201   O     0.37500   0.61650   0.40980   0.00000  Uiso   1.00
O202   O     0.87500   0.11650   0.40980   0.00000  Uiso   1.00
O203   O     0.87500   0.61650   0.75055   0.00000  Uiso   1.00
O204   O     0.87500   0.13350   0.75055   0.00000  Uiso   1.00
O205   O     0.13350   0.87500   0.75055   0.00000  Uiso   1.00
O206   O     0.13350   0.37500   0.40980   0.00000  Uiso   1.00
O207   O     0.11650   0.37500   0.75055   0.00000  Uiso   1.00
O208   O     0.61650   0.37500   0.40980   0.00000  Uiso   1.00
O209   O     0.61650   0.87500   0.75055   0.00000  Uiso   1.00
O210   O     0.63350   0.87500   0.40980   0.00000  Uiso   1.00
O211   O     0.37500   0.87500   0.23364   0.00000  Uiso   1.00
O212   O     0.87500   0.87500   0.24522   0.00000  Uiso   1.00
O213   O     0.37500   0.37500   0.24522   0.00000  Uiso   1.00
O214   O     0.87500   0.37500   0.58597   0.00000  Uiso   1.00
O215   O     0.37500   0.37500   0.57438   0.00000  Uiso   1.00
O216   O     0.63350   0.37500   0.75055   0.00000  Uiso   1.00
O217   O     0.11650   0.87500   0.40980   0.00000  Uiso   1.00
O218   O     0.87500   0.63350   0.40980   0.00000  Uiso   1.00
O219   O     0.37500   0.11650   0.75055   0.00000  Uiso   1.00
O220   O     0.37500   0.87500   0.58597   0.00000  Uiso   1.00
O221   O     0.87500   0.37500   0.23364   0.00000  Uiso   1.00
O222   O     0.87500   0.87500   0.57438   0.00000  Uiso   1.00
O223   O     0.62500   0.36650   0.23943   0.00000  Uiso   1.00
O224   O     0.12500   0.88350   0.58018   0.00000  Uiso   1.00
O225   O     0.88350   0.62500   0.23943   0.00000  Uiso   1.00
O226   O     0.36650   0.12500   0.58018   0.00000  Uiso   1.00
O227   O     0.62500   0.12500   0.75634   0.00000  Uiso   1.00
O228   O     0.12500   0.62500   0.40401   0.00000  Uiso   1.00
O229   O     0.87500   0.87500   0.75055   0.00000  Uiso   1.00
O230   O     0.87500   0.37500   0.40980   0.00000  Uiso   1.00
O231   O     0.37500   0.37500   0.75055   0.00000  Uiso   1.00
O232   O     0.37500   0.87500   0.40980   0.00000  Uiso   1.00
O233   O     0.62500   0.12500   0.58018   0.00000  Uiso   1.00
O234   O     0.12500   0.12500   0.23943   0.00000  Uiso   1.00
O235   O     0.12500   0.62500   0.58018   0.00000  Uiso   1.00
O236   O     0.62500   0.62500   0.23943   0.00000  Uiso   1.00
O237   O     0.87500   0.62500   0.58018   0.00000  Uiso   1.00
O238   O     0.87500   0.12500   0.23943   0.00000  Uiso   1.00
O239   O     0.87500   0.62500   0.23943   0.00000  Uiso   1.00
O240   O     0.37500   0.12500   0.23943   0.00000  Uiso   1.00
O241   O     0.37500   0.62500   0.58018   0.00000  Uiso   1.00
O242   O     0.37500   0.12500   0.58018   0.00000  Uiso   1.00
O243   O     0.62500   0.87500   0.58018   0.00000  Uiso   1.00
O244   O     0.12500   0.87500   0.58018   0.00000  Uiso   1.00
O245   O     0.12500   0.37500   0.23943   0.00000  Uiso   1.00
O246   O     0.62500   0.37500   0.23943   0.00000  Uiso   1.00
O247   O     0.12500   0.87500   0.23943   0.00000  Uiso   1.00
O248   O     0.62500   0.62500   0.75055   0.00000  Uiso   1.00
O249   O     0.62500   0.12500   0.75055   0.00000  Uiso   1.00
O250   O     0.62500   0.62500   0.40980   0.00000  Uiso   1.00
O251   O     0.12500   0.12500   0.40980   0.00000  Uiso   1.00
O252   O     0.12500   0.62500   0.40980   0.00000  Uiso   1.00
O253   O     0.12500   0.12500   0.75055   0.00000  Uiso   1.00
O254   O     0.37500   0.12500   0.75055   0.00000  Uiso   1.00
O255   O     0.37500   0.62500   0.40980   0.00000  Uiso   1.00
O256   O     0.37500   0.12500   0.40980   0.00000  Uiso   1.00
O257   O     0.87500   0.62500   0.40980   0.00000  Uiso   1.00
O258   O     0.87500   0.12500   0.75055   0.00000  Uiso   1.00
O259   O     0.87500   0.62500   0.75055   0.00000  Uiso   1.00
O260   O     0.62500   0.87500   0.75055   0.00000  Uiso   1.00
O261   O     0.62500   0.37500   0.40980   0.00000  Uiso   1.00
O262   O     0.62500   0.37500   0.75055   0.00000  Uiso   1.00
O263   O     0.12500   0.37500   0.40980   0.00000  Uiso   1.00
O264   O     0.12500   0.87500   0.75055   0.00000  Uiso   1.00
O265   O     0.12500   0.87500   0.40980   0.00000  Uiso   1.00
O266   O     0.37500   0.87500   0.58018   0.00000  Uiso   1.00
O267   O     0.87500   0.87500   0.58018   0.00000  Uiso   1.00
O268   O     0.37500   0.37500   0.58018   0.00000  Uiso   1.00
O269   O     0.87500   0.37500   0.23943   0.00000  Uiso   1.00
O270   O     0.37500   0.37500   0.23943   0.00000  Uiso   1.00
O271   O     0.12500   0.37500   0.75055   0.00000  Uiso   1.00
O272   O     0.62500   0.87500   0.40980   0.00000  Uiso   1.00
O273   O     0.87500   0.12500   0.40980   0.00000  Uiso   1.00
O274   O     0.37500   0.62500   0.75055   0.00000  Uiso   1.00
O275   O     0.37500   0.87500   0.23943   0.00000  Uiso   1.00
O276   O     0.87500   0.37500   0.58018   0.00000  Uiso   1.00
O277   O     0.87500   0.87500   0.23943   0.00000  Uiso   1.00
O278   O     0.62500   0.87500   0.23943   0.00000  Uiso   1.00
O279   O     0.62500   0.37500   0.58018   0.00000  Uiso   1.00
O280   O     0.12500   0.37500   0.58018   0.00000  Uiso   1.00
O281   O     0.37500   0.62500   0.23943   0.00000  Uiso   1.00
O282   O     0.87500   0.12500   0.58018   0.00000  Uiso   1.00
O283   O     0.62500   0.12500   0.40980   0.00000  Uiso   1.00
O284   O     0.12500   0.62500   0.75055   0.00000  Uiso   1.00
Mn285  Mn    0.00000   0.00000   0.96020   0.00000  Uiso   1.00
Mn286  Mn    0.00000   0.50000   0.94149   0.00000  Uiso   1.00
Mn287  Mn    0.50000   0.00000   0.94149   0.00000  Uiso   1.00
Mn288  Mn    0.50000   0.50000   0.96020   0.00000  Uiso   1.00
